<?xml version="1.0" encoding="UTF-8"?>

<!-- generated on 2025-01-10 23:19:19 by Eclipse SUMO netconvert Version 1.20.0
<configuration xmlns:xsi="http://www.w3.org/2001/XMLSchema-instance" xsi:noNamespaceSchemaLocation="http://sumo.dlr.de/xsd/netconvertConfiguration.xsd">

    <input>
        <node-files value="complex_nodes.nod.xml"/>
        <edge-files value="complex_edges.edg.xml"/>
        <connection-files value="complex_connections.con.xml"/>
    </input>

    <output>
        <output-file value="complex_network.net.xml"/>
    </output>

</configuration>
-->

<net version="1.20" junctionCornerDetail="5" limitTurnSpeed="5.50" xmlns:xsi="http://www.w3.org/2001/XMLSchema-instance" xsi:noNamespaceSchemaLocation="http://sumo.dlr.de/xsd/net_file.xsd">

    <location netOffset="500.00,500.00" convBoundary="0.00,0.00,1000.00,1000.00" origBoundary="-500.00,-500.00,500.00,500.00" projParameter="!"/>

    <edge id=":C_0" function="internal">
        <lane id=":C_0_0" index="0" speed="6.51" length="9.03" shape="492.00,513.60 491.65,511.15 490.60,509.40 488.85,508.35 486.40,508.00"/>
    </edge>
    <edge id=":C_1" function="internal">
        <lane id=":C_1_0" index="0" speed="13.89" length="27.20" shape="495.20,513.60 495.20,486.40"/>
    </edge>
    <edge id=":C_2" function="internal">
        <lane id=":C_2_0" index="0" speed="10.36" length="12.07" shape="498.40,513.60 499.35,506.95 502.10,502.36"/>
    </edge>
    <edge id=":C_12" function="internal">
        <lane id=":C_12_0" index="0" speed="10.36" length="12.44" shape="502.10,502.36 502.20,502.20 506.95,499.35 513.60,498.40"/>
    </edge>
    <edge id=":C_3" function="internal">
        <lane id=":C_3_0" index="0" speed="6.51" length="9.03" shape="513.60,508.00 511.15,508.35 509.40,509.40 508.35,511.15 508.00,513.60"/>
    </edge>
    <edge id=":C_4" function="internal">
        <lane id=":C_4_0" index="0" speed="13.89" length="27.20" shape="513.60,504.80 486.40,504.80"/>
    </edge>
    <edge id=":C_5" function="internal">
        <lane id=":C_5_0" index="0" speed="10.36" length="12.07" shape="513.60,501.60 506.95,500.65 502.36,497.90"/>
    </edge>
    <edge id=":C_13" function="internal">
        <lane id=":C_13_0" index="0" speed="10.36" length="12.44" shape="502.36,497.90 502.20,497.80 499.35,493.05 498.40,486.40"/>
    </edge>
    <edge id=":C_6" function="internal">
        <lane id=":C_6_0" index="0" speed="6.51" length="9.03" shape="508.00,486.40 508.35,488.85 509.40,490.60 511.15,491.65 513.60,492.00"/>
    </edge>
    <edge id=":C_7" function="internal">
        <lane id=":C_7_0" index="0" speed="13.89" length="27.20" shape="504.80,486.40 504.80,513.60"/>
    </edge>
    <edge id=":C_8" function="internal">
        <lane id=":C_8_0" index="0" speed="10.36" length="12.07" shape="501.60,486.40 500.65,493.05 497.90,497.64"/>
    </edge>
    <edge id=":C_14" function="internal">
        <lane id=":C_14_0" index="0" speed="10.36" length="12.44" shape="497.90,497.64 497.80,497.80 493.05,500.65 486.40,501.60"/>
    </edge>
    <edge id=":C_9" function="internal">
        <lane id=":C_9_0" index="0" speed="6.51" length="9.03" shape="486.40,492.00 488.85,491.65 490.60,490.60 491.65,488.85 492.00,486.40"/>
    </edge>
    <edge id=":C_10" function="internal">
        <lane id=":C_10_0" index="0" speed="13.89" length="27.20" shape="486.40,495.20 513.60,495.20"/>
    </edge>
    <edge id=":C_11" function="internal">
        <lane id=":C_11_0" index="0" speed="10.36" length="12.07" shape="486.40,498.40 493.05,499.35 497.64,502.10"/>
    </edge>
    <edge id=":C_15" function="internal">
        <lane id=":C_15_0" index="0" speed="10.36" length="12.44" shape="497.64,502.10 497.80,502.20 500.65,506.95 501.60,513.60"/>
    </edge>
    <edge id=":E_0" function="internal">
        <lane id=":E_0_0" index="0" speed="3.65" length="4.67" shape="1000.00,498.40 1001.20,499.20 1001.60,500.00 1001.20,500.80 1000.00,501.60"/>
    </edge>
    <edge id=":N_0" function="internal">
        <lane id=":N_0_0" index="0" speed="3.65" length="4.67" shape="501.60,1000.00 500.80,1001.20 500.00,1001.60 499.20,1001.20 498.40,1000.00"/>
    </edge>
    <edge id=":S_0" function="internal">
        <lane id=":S_0_0" index="0" speed="3.65" length="4.67" shape="498.40,0.00 499.20,-1.20 500.00,-1.60 500.80,-1.20 501.60,0.00"/>
    </edge>
    <edge id=":W_0" function="internal">
        <lane id=":W_0_0" index="0" speed="3.65" length="4.67" shape="0.00,501.60 -1.20,500.80 -1.60,500.00 -1.20,499.20 0.00,498.40"/>
    </edge>

    <edge id="CE" from="C" to="E" priority="1">
        <lane id="CE_0" index="0" speed="13.89" length="486.40" shape="513.60,492.00 1000.00,492.00"/>
        <lane id="CE_1" index="1" speed="13.89" length="486.40" shape="513.60,495.20 1000.00,495.20"/>
        <lane id="CE_2" index="2" speed="13.89" length="486.40" shape="513.60,498.40 1000.00,498.40"/>
    </edge>
    <edge id="CN" from="C" to="N" priority="1">
        <lane id="CN_0" index="0" speed="13.89" length="486.40" shape="508.00,513.60 508.00,1000.00"/>
        <lane id="CN_1" index="1" speed="13.89" length="486.40" shape="504.80,513.60 504.80,1000.00"/>
        <lane id="CN_2" index="2" speed="13.89" length="486.40" shape="501.60,513.60 501.60,1000.00"/>
    </edge>
    <edge id="CS" from="C" to="S" priority="1">
        <lane id="CS_0" index="0" speed="13.89" length="486.40" shape="492.00,486.40 492.00,0.00"/>
        <lane id="CS_1" index="1" speed="13.89" length="486.40" shape="495.20,486.40 495.20,0.00"/>
        <lane id="CS_2" index="2" speed="13.89" length="486.40" shape="498.40,486.40 498.40,0.00"/>
    </edge>
    <edge id="CW" from="C" to="W" priority="1">
        <lane id="CW_0" index="0" speed="13.89" length="486.40" shape="486.40,508.00 0.00,508.00"/>
        <lane id="CW_1" index="1" speed="13.89" length="486.40" shape="486.40,504.80 0.00,504.80"/>
        <lane id="CW_2" index="2" speed="13.89" length="486.40" shape="486.40,501.60 0.00,501.60"/>
    </edge>
    <edge id="EC" from="E" to="C" priority="1">
        <lane id="EC_0" index="0" speed="13.89" length="486.40" shape="1000.00,508.00 513.60,508.00"/>
        <lane id="EC_1" index="1" speed="13.89" length="486.40" shape="1000.00,504.80 513.60,504.80"/>
        <lane id="EC_2" index="2" speed="13.89" length="486.40" shape="1000.00,501.60 513.60,501.60"/>
    </edge>
    <edge id="NC" from="N" to="C" priority="1">
        <lane id="NC_0" index="0" speed="13.89" length="486.40" shape="492.00,1000.00 492.00,513.60"/>
        <lane id="NC_1" index="1" speed="13.89" length="486.40" shape="495.20,1000.00 495.20,513.60"/>
        <lane id="NC_2" index="2" speed="13.89" length="486.40" shape="498.40,1000.00 498.40,513.60"/>
    </edge>
    <edge id="SC" from="S" to="C" priority="1">
        <lane id="SC_0" index="0" speed="13.89" length="486.40" shape="508.00,0.00 508.00,486.40"/>
        <lane id="SC_1" index="1" speed="13.89" length="486.40" shape="504.80,0.00 504.80,486.40"/>
        <lane id="SC_2" index="2" speed="13.89" length="486.40" shape="501.60,0.00 501.60,486.40"/>
    </edge>
    <edge id="WC" from="W" to="C" priority="1">
        <lane id="WC_0" index="0" speed="13.89" length="486.40" shape="0.00,492.00 486.40,492.00"/>
        <lane id="WC_1" index="1" speed="13.89" length="486.40" shape="0.00,495.20 486.40,495.20"/>
        <lane id="WC_2" index="2" speed="13.89" length="486.40" shape="0.00,498.40 486.40,498.40"/>
    </edge>

    <tlLogic id="C" type="static" programID="0" offset="0">
        <!-- Main Phases and trasition phase alternatively-->
        <phase duration="31" state="rGGrrgrGGrrg"/>
        <phase duration="4" state="ryyrryryyrry"/>
        <phase duration="31" state="rrgrGGrrgrGG"/>
        <phase duration="4" state="rryryyrryryy"/>
        <phase duration="31" state="GrgrrgGrgrrg"/>
        <phase duration="4" state="yryrryyryrry"/>
        <phase duration="31" state="rrgGrgrrgGrg"/>
        <phase duration="4" state="rryyryrryyry"/>
        <phase duration="31" state="rrgrrgGGGrrg"/>
        <phase duration="4" state="rryrryyyyrry"/>
        <phase duration="31" state="GGGrrgrrgrrg"/>
        <phase duration="4" state="yyyrryrryrry"/>
        <phase duration="31" state="rrgGGGrrgrrg"/>
        <phase duration="4" state="rryyyyrryrry"/>
        <phase duration="31" state="rrgrrgrrgGGG"/>
        <phase duration="4" state="rryrryrryyyy"/>
    </tlLogic>

    <junction id="C" type="traffic_light" x="500.00" y="500.00" incLanes="NC_0 NC_1 NC_2 EC_0 EC_1 EC_2 SC_0 SC_1 SC_2 WC_0 WC_1 WC_2" intLanes=":C_0_0 :C_1_0 :C_12_0 :C_3_0 :C_4_0 :C_13_0 :C_6_0 :C_7_0 :C_14_0 :C_9_0 :C_10_0 :C_15_0" shape="490.40,513.60 509.60,513.60 510.04,511.38 510.60,510.60 511.38,510.04 512.38,509.71 513.60,509.60 513.60,490.40 511.38,489.96 510.60,489.40 510.04,488.62 509.71,487.62 509.60,486.40 490.40,486.40 489.96,488.62 489.40,489.40 488.62,489.96 487.62,490.29 486.40,490.40 486.40,509.60 488.62,510.04 489.40,510.60 489.96,511.38 490.29,512.38">
        <request index="0"  response="000000000000" foes="000000000000" cont="0"/>
        <request index="1"  response="100000000000" foes="110100010000" cont="0"/>
        <request index="2"  response="100010100000" foes="100010110000" cont="1"/>
        <request index="3"  response="000000000000" foes="000000000000" cont="0"/>
        <request index="4"  response="000010000110" foes="100010000110" cont="0"/>
        <request index="5"  response="010110000100" foes="010110000100" cont="1"/>
        <request index="6"  response="000000000000" foes="000000000000" cont="0"/>
        <request index="7"  response="000000100000" foes="010000110100" cont="0"/>
        <request index="8"  response="100000100010" foes="110000100010" cont="1"/>
        <request index="9"  response="000000000000" foes="000000000000" cont="0"/>
        <request index="10" response="000110000010" foes="000110100010" cont="0"/>
        <request index="11" response="000100010110" foes="000100010110" cont="1"/>
    </junction>
    <junction id="E" type="priority" x="1000.00" y="500.00" incLanes="CE_0 CE_1 CE_2" intLanes=":E_0_0" shape="1000.00,500.00 1000.00,490.40 1000.00,500.00">
        <request index="0" response="0" foes="0" cont="0"/>
    </junction>
    <junction id="N" type="priority" x="500.00" y="1000.00" incLanes="CN_0 CN_1 CN_2" intLanes=":N_0_0" shape="500.00,1000.00 509.60,1000.00 500.00,1000.00">
        <request index="0" response="0" foes="0" cont="0"/>
    </junction>
    <junction id="S" type="priority" x="500.00" y="0.00" incLanes="CS_0 CS_1 CS_2" intLanes=":S_0_0" shape="500.00,0.00 490.40,0.00 500.00,0.00">
        <request index="0" response="0" foes="0" cont="0"/>
    </junction>
    <junction id="W" type="priority" x="0.00" y="500.00" incLanes="CW_0 CW_1 CW_2" intLanes=":W_0_0" shape="0.00,500.00 0.00,509.60 0.00,500.00">
        <request index="0" response="0" foes="0" cont="0"/>
    </junction>

    <junction id=":C_12_0" type="internal" x="502.10" y="502.36" incLanes=":C_2_0 SC_1" intLanes=":C_4_0 :C_5_0 :C_7_0 :C_11_0"/>
    <junction id=":C_13_0" type="internal" x="502.36" y="497.90" incLanes=":C_5_0 WC_1" intLanes=":C_2_0 :C_7_0 :C_8_0 :C_10_0"/>
    <junction id=":C_14_0" type="internal" x="497.90" y="497.64" incLanes=":C_8_0 NC_1" intLanes=":C_1_0 :C_5_0 :C_10_0 :C_11_0"/>
    <junction id=":C_15_0" type="internal" x="497.64" y="502.10" incLanes=":C_11_0 EC_1" intLanes=":C_1_0 :C_2_0 :C_4_0 :C_8_0"/>

    <connection from="CE" to="EC" fromLane="2" toLane="2" via=":E_0_0" dir="t" state="M"/>
    <connection from="CN" to="NC" fromLane="2" toLane="2" via=":N_0_0" dir="t" state="M"/>
    <connection from="CS" to="SC" fromLane="2" toLane="2" via=":S_0_0" dir="t" state="M"/>
    <connection from="CW" to="WC" fromLane="2" toLane="2" via=":W_0_0" dir="t" state="M"/>
    <connection from="EC" to="CN" fromLane="0" toLane="0" via=":C_3_0" tl="C" linkIndex="3" dir="r" state="O"/>
    <connection from="EC" to="CW" fromLane="1" toLane="1" via=":C_4_0" tl="C" linkIndex="4" dir="s" state="o"/>
    <connection from="EC" to="CS" fromLane="2" toLane="2" via=":C_5_0" tl="C" linkIndex="5" dir="l" state="o"/>
    <connection from="NC" to="CW" fromLane="0" toLane="0" via=":C_0_0" tl="C" linkIndex="0" dir="r" state="O"/>
    <connection from="NC" to="CS" fromLane="1" toLane="1" via=":C_1_0" tl="C" linkIndex="1" dir="s" state="O"/>
    <connection from="NC" to="CE" fromLane="2" toLane="2" via=":C_2_0" tl="C" linkIndex="2" dir="l" state="o"/>
    <connection from="SC" to="CE" fromLane="0" toLane="0" via=":C_6_0" tl="C" linkIndex="6" dir="r" state="O"/>
    <connection from="SC" to="CN" fromLane="1" toLane="1" via=":C_7_0" tl="C" linkIndex="7" dir="s" state="O"/>
    <connection from="SC" to="CW" fromLane="2" toLane="2" via=":C_8_0" tl="C" linkIndex="8" dir="l" state="o"/>
    <connection from="WC" to="CS" fromLane="0" toLane="0" via=":C_9_0" tl="C" linkIndex="9" dir="r" state="O"/>
    <connection from="WC" to="CE" fromLane="1" toLane="1" via=":C_10_0" tl="C" linkIndex="10" dir="s" state="o"/>
    <connection from="WC" to="CN" fromLane="2" toLane="2" via=":C_11_0" tl="C" linkIndex="11" dir="l" state="o"/>

    <connection from=":C_0" to="CW" fromLane="0" toLane="0" dir="r" state="M"/>
    <connection from=":C_1" to="CS" fromLane="0" toLane="1" dir="s" state="M"/>
    <connection from=":C_2" to="CE" fromLane="0" toLane="2" via=":C_12_0" dir="l" state="m"/>
    <connection from=":C_12" to="CE" fromLane="0" toLane="2" dir="l" state="M"/>
    <connection from=":C_3" to="CN" fromLane="0" toLane="0" dir="r" state="M"/>
    <connection from=":C_4" to="CW" fromLane="0" toLane="1" dir="s" state="M"/>
    <connection from=":C_5" to="CS" fromLane="0" toLane="2" via=":C_13_0" dir="l" state="m"/>
    <connection from=":C_13" to="CS" fromLane="0" toLane="2" dir="l" state="M"/>
    <connection from=":C_6" to="CE" fromLane="0" toLane="0" dir="r" state="M"/>
    <connection from=":C_7" to="CN" fromLane="0" toLane="1" dir="s" state="M"/>
    <connection from=":C_8" to="CW" fromLane="0" toLane="2" via=":C_14_0" dir="l" state="m"/>
    <connection from=":C_14" to="CW" fromLane="0" toLane="2" dir="l" state="M"/>
    <connection from=":C_9" to="CS" fromLane="0" toLane="0" dir="r" state="M"/>
    <connection from=":C_10" to="CE" fromLane="0" toLane="1" dir="s" state="M"/>
    <connection from=":C_11" to="CN" fromLane="0" toLane="2" via=":C_15_0" dir="l" state="m"/>
    <connection from=":C_15" to="CN" fromLane="0" toLane="2" dir="l" state="M"/>
    <connection from=":E_0" to="EC" fromLane="0" toLane="2" dir="t" state="M"/>
    <connection from=":N_0" to="NC" fromLane="0" toLane="2" dir="t" state="M"/>
    <connection from=":S_0" to="SC" fromLane="0" toLane="2" dir="t" state="M"/>
    <connection from=":W_0" to="WC" fromLane="0" toLane="2" dir="t" state="M"/>

    <laneAreaDetector id="e2_detector_NC_0" lane="NC_0" pos="235" length="250" freq="1" file="e2_detector_output_NC_0.xml"/>
    <laneAreaDetector id="e2_detector_NC_1" lane="NC_1" pos="235" length="250" freq="1" file="e2_detector_output_NC_1.xml"/>
    <laneAreaDetector id="e2_detector_NC_2" lane="NC_2" pos="235" length="250" freq="1" file="e2_detector_output_NC_2.xml"/>
    <laneAreaDetector id="e2_detector_EC_0" lane="EC_0" pos="235" length="250" freq="1" file="e2_detector_output_EC_0.xml"/>
    <laneAreaDetector id="e2_detector_EC_1" lane="EC_1" pos="235" length="250" freq="1" file="e2_detector_output_EC_1.xml"/>
    <laneAreaDetector id="e2_detector_EC_2" lane="EC_2" pos="235" length="250" freq="1" file="e2_detector_output_EC_2.xml"/>
    <laneAreaDetector id="e2_detector_SC_0" lane="SC_0" pos="235" length="250" freq="1" file="e2_detector_output_SC_0.xml"/>
    <laneAreaDetector id="e2_detector_SC_1" lane="SC_1" pos="235" length="250" freq="1" file="e2_detector_output_SC_1.xml"/>
    <laneAreaDetector id="e2_detector_SC_2" lane="SC_2" pos="235" length="250" freq="1" file="e2_detector_output_SC_2.xml"/>
    <laneAreaDetector id="e2_detector_WC_0" lane="WC_0" pos="235" length="250" freq="1" file="e2_detector_output_WC_0.xml"/>
    <laneAreaDetector id="e2_detector_WC_1" lane="WC_1" pos="235" length="250" freq="1" file="e2_detector_output_WC_1.xml"/>
    <laneAreaDetector id="e2_detector_WC_2" lane="WC_2" pos="235" length="250" freq="1" file="e2_detector_output_WC_2.xml"/>
    
    <inductionLoop id="e1_detector_NC_0" lane="NC_0" pos="-5" freq="1" file="e1_detector_output_NC_0.xml"/>
    <inductionLoop id="e1_detector_NC_1" lane="NC_1" pos="-5" freq="1" file="e1_detector_output_NC_1.xml"/>
    <inductionLoop id="e1_detector_NC_2" lane="NC_2" pos="-5" freq="1" file="e1_detector_output_NC_2.xml"/>
    <inductionLoop id="e1_detector_EC_0" lane="EC_0" pos="-5" freq="1" file="e1_detector_output_EC_0.xml"/>
    <inductionLoop id="e1_detector_EC_1" lane="EC_1" pos="-5" freq="1" file="e1_detector_output_EC_1.xml"/>
    <inductionLoop id="e1_detector_EC_2" lane="EC_2" pos="-5" freq="1" file="e1_detector_output_EC_2.xml"/>
    <inductionLoop id="e1_detector_SC_0" lane="SC_0" pos="-5" freq="1" file="e1_detector_output_SC_0.xml"/>
    <inductionLoop id="e1_detector_SC_1" lane="SC_1" pos="-5" freq="1" file="e1_detector_output_SC_1.xml"/>
    <inductionLoop id="e1_detector_SC_2" lane="SC_2" pos="-5" freq="1" file="e1_detector_output_SC_2.xml"/>
    <inductionLoop id="e1_detector_WC_0" lane="WC_0" pos="-5" freq="1" file="e1_detector_output_WC_0.xml"/>
    <inductionLoop id="e1_detector_WC_1" lane="WC_1" pos="-5" freq="1" file="e1_detector_output_WC_1.xml"/>
    <inductionLoop id="e1_detector_WC_2" lane="WC_2" pos="-5" freq="1" file="e1_detector_output_WC_2.xml"/>
    
</net>
