<tlLogics>
    <tlLogic id="C" type="static" programID="0" offset="0">
        <phase duration="31" state="rGGrrGrGGrrG"/>
        <phase duration="4" state="ryyrryryyrry"/>
        <phase duration="31" state="rrGrGGrrGrGG"/>
        <phase duration="4" state="rryryyrryryy"/>
        <phase duration="31" state="GrGrrGGrGrrG"/>
        <phase duration="4" state="yryrryyryrry"/>
        <phase duration="31" state="rrGGrGrrGGrG"/>
        <phase duration="4" state="rryyryrryyry"/>
        <phase duration="31" state="rrGrrGGGGrrG"/>
        <phase duration="4" state="rryrryyyyrry"/>
        <phase duration="31" state="GGGrrGrrGrrG"/>
        <phase duration="4" state="yyyrryrryrry"/>
        <phase duration="31" state="rrGGGGrrGrrG"/>
        <phase duration="4" state="rryyyyrryrry"/>
        <phase duration="31" state="rrGrrGrrGGGG"/>
        <phase duration="4" state="rryrryrryyyy"/>
    </tlLogic>
</tlLogics>